CM Loaded dipole approximation at 7.1 MHz
CM Main dipole plus a small top loop acting as coupled loading structure
GW 1 51 0 0 -5.282 0 0 5.282 0.001
GW 2 9 -0.25 0 5.282 0.25 0 5.282 0.001
GW 3 9 0.25 0 5.282 0.25 0 5.782 0.001
GW 4 9 0.25 0 5.782 -0.25 0 5.782 0.001
GW 5 9 -0.25 0 5.782 -0.25 0 5.282 0.001
GE
EX 0 1 26 0 1.0 0.0
FR 0 1 0 0 7.1 0.0
EN
