CE
GW 1 51 0 0 -5.282 0 0 5.282 0.001
GE
NT 1 1 26 1 1 26 50.0 0.0
NT 1 1 26 1 1 26 75.0 0.0
PT 0 1 26 0 50.0 0.1 1.0
PT 0 1 26 0 75.0 0.2 1.0
EX 0 1 26 0 1.0 0.0
FR 0 1 0 0 14.2 0.0
EN
