CE Half-wave dipole with GN -1 (null ground — cancel previous GN)
CE GN -1 is treated as free-space per NEC spec §3.3.
GW 1 51 0 0 -5.282 0 0 5.282 0.001
GE
GN -1
EX 0 1 26 0 1.0 0.0
FR 0 1 0 0 14.2 0.0
EN
