CE
GW 1 51 0 0 -5.282 0 0 5.282 0.001
GE
NT 1 1 26 1 1 26 50.0 0.0
EX 0 1 26 0 1.0 0.0
FR 0 1 0 0 14.2 0.0
EN
