CM Two parallel half-wave dipoles, independent center feeds
GW 1 51 0.0 0 -5.282 0.0 0 5.282 0.001
GW 2 51 1.0 0 -5.282 1.0 0 5.282 0.001
GE
EX 0 1 26 0 1.0 0.0
EX 0 2 26 0 1.0 0.0
FR 0 1 0 0 14.2 0.0
EN
