CM Two parallel dipoles linked by a lossless TL card using segment=0 endpoints.
CM segment=0 is mapped to the tag center segment by fnec runtime.
GW 1 51 0.0 0 -5.282 0.0 0 5.282 0.001
GW 2 51 1.0 0 -5.282 1.0 0 5.282 0.001
GE
TL 1 0 2 0 1 0 50.0 0.1 1.0
EX 0 1 26 0 1.0 0.0
FR 0 1 0 0 14.2 0.0
EN
