CM Two parallel dipoles, one driven, linked by a lossless TL card
CM Phase-1 TL subset regression case (TL type 0, NSEG=1, explicit endpoints)
CE
GW 1 51 0.0 0 -5.282 0.0 0 5.282 0.001
GW 2 51 1.0 0 -5.282 1.0 0 5.282 0.001
GE
TL 1 26 2 26 1 0 50.0 0.1 1.0
EX 0 1 26 0 1.0 0.0
FR 0 1 0 0 14.2 0.0
EN
