CE
GW 1 51 -3.80 0 -5.388 -3.80 0 5.388 0.001
GW 2 51  0.00 0 -5.282  0.00 0 5.282 0.001
GW 3 51  2.64 0 -5.176  2.64 0 5.176 0.001
GW 4 51  5.28 0 -5.092  5.28 0 5.092 0.001
GW 5 51  8.45 0 -4.965  8.45 0 4.965 0.001
GE
EX 0 2 26 0 1.0 0.0
FR 0 1 0 0 14.2 0.0
EN
