CM  Half-wave dipole at 14.2 MHz — smoke-test deck
CE
GW  1  11  0.0  0.0  -5.282  0.0  0.0  5.282  0.001
EX  0  1  6  0  1.0  0.0
FR  0  1  0  0  14.2  0.0
EN
