CM plane wave theta=30 on lambda/2 51seg
CE
GW 1 51 0 0 -5.282 0 0 5.282 0.001
GE 0
FR 0 1 0 0 14.2 0.0
EX 1 1 1 0 30.0 0.0 0.0
XQ 0
EN
